%NProcShared=2
%Chk=checkpoint.chk
#n CCSD/6-31G SP formcheck Density=CC

Title

0 1
C          -4.78204        -0.13015        -0.01551
C          -3.95210         1.14720        -0.02698
H          -4.27586        -0.91107        -0.62116
H          -5.78686         0.06414        -0.44674
H          -4.89726        -0.49920         1.02566
H          -3.80646         1.50920        -1.07010
H          -2.94636         0.93548         0.39340
O          -4.56469         2.13590         0.75473
H          -5.30387         2.51248         0.20918

